LIG_A_1101_2_02
anSeeSAR  04022010253D 1   1.00000     0.00000     0
SeeSAR 9.2 andre
 35 35  0  0  0  0            999 V2000
    7.5654    5.8293   21.9018 C   0  0  0  0  0  0  0  0  0  0  0  0
    6.3977   -0.1627   20.6240 C   0  0  0  0  0  0  0  0  0  0  0  0
    8.6892    1.2284   22.1336 C   0  0  0  0  0  0  0  0  0  0  0  0
    9.5856   -1.0143   22.0873 C   0  0  0  0  0  0  0  0  0  0  0  0
   10.9803   -0.9501   22.5265 C   0  0  0  0  0  0  0  0  0  0  0  0
   12.0935   -1.0483   22.9600 C   0  0  0  0  0  0  0  0  0  0  0  0
    7.0725    4.5084   22.4002 C   0  0  0  0  0  0  0  0  0  0  0  0
    7.6089    2.1422   22.6968 C   0  0  2  0  0  0  0  0  0  0  0  0
    6.2041    1.5741   22.4355 C   0  0  0  0  0  0  0  0  0  0  0  0
    6.0122    1.1103   21.0124 C   0  0  0  0  0  0  0  0  0  0  0  0
    5.4810    1.9524   20.0465 C   0  0  0  0  0  0  0  0  0  0  0  0
    5.3310    1.5389   18.7335 C   0  0  0  0  0  0  0  0  0  0  0  0
    5.7225    0.2614   18.3731 C   0  0  0  0  0  0  0  0  0  0  0  0
    6.2600   -0.5888   19.3165 C   0  0  0  0  0  0  0  0  0  0  0  0
    7.8055    3.4463   22.0797 N   0  0  0  0  0  0  0  0  0  0  0  0
    8.8157    0.0397   22.7124 N   0  0  0  0  0  0  0  0  0  0  0  0
    6.0326    4.3929   23.0392 O   0  0  0  0  0  0  0  0  0  0  0  0
    5.6157   -0.1699   17.0947 O   0  0  0  0  0  0  0  0  0  0  0  0
    9.3697    1.5812   21.1719 O   0  0  0  0  0  0  0  0  0  0  0  0
   13.8099   -1.3885   23.7768 Br  0  0  0  0  0  0  0  0  0  0  0  0
    6.9416    6.5519   22.1997 H   0  0  0  0  0  0  0  0  0  0  0  0
    8.4786    6.0047   22.2696 H   0  0  0  0  0  0  0  0  0  0  0  0
    7.6057    5.8146   20.9027 H   0  0  0  0  0  0  0  0  0  0  0  0
    6.7836   -0.7862   21.3039 H   0  0  0  0  0  0  0  0  0  0  0  0
    9.1996   -1.9009   22.3421 H   0  0  0  0  0  0  0  0  0  0  0  0
    9.5469   -0.9070   21.0939 H   0  0  0  0  0  0  0  0  0  0  0  0
    7.7428    2.2293   23.6839 H   0  0  0  0  0  0  0  0  0  0  0  0
    5.5304    2.2864   22.6323 H   0  0  0  0  0  0  0  0  0  0  0  0
    6.0557    0.7968   23.0469 H   0  0  0  0  0  0  0  0  0  0  0  0
    5.2005    2.8772   20.3037 H   0  0  0  0  0  0  0  0  0  0  0  0
    4.9429    2.1584   18.0512 H   0  0  0  0  0  0  0  0  0  0  0  0
    6.5489   -1.5099   19.0557 H   0  0  0  0  0  0  0  0  0  0  0  0
    8.5201    3.5471   21.3875 H   0  0  0  0  0  0  0  0  0  0  0  0
    8.3726   -0.1294   23.5927 H   0  0  0  0  0  0  0  0  0  0  0  0
    6.3637   -0.0129   16.4499 H   0  0  0  0  0  0  0  0  0  0  0  0
  1  7  1  0  0  0  0
  2 10  2  0  0  0  0
  2 14  1  0  0  0  0
  3  8  1  0  0  0  0
  3 16  1  0  0  0  0
  3 19  2  0  0  0  0
  4  5  1  0  0  0  0
  4 16  1  0  0  0  0
  5  6  3  0  0  0  0
  6 20  1  0  0  0  0
  7 15  1  0  0  0  0
  7 17  2  0  0  0  0
  8  9  1  0  0  0  0
  8 15  1  0  0  0  0
  9 10  1  0  0  0  0
 10 11  1  0  0  0  0
 11 12  2  0  0  0  0
 12 13  1  0  0  0  0
 13 14  2  0  0  0  0
 13 18  1  0  0  0  0
  1 21  1  0  0  0  0
  1 22  1  0  0  0  0
  1 23  1  0  0  0  0
  2 24  1  0  0  0  0
  4 25  1  0  0  0  0
  4 26  1  0  0  0  0
  8 27  1  0  0  0  0
  9 28  1  0  0  0  0
  9 29  1  0  0  0  0
 11 30  1  0  0  0  0
 12 31  1  0  0  0  0
 14 32  1  0  0  0  0
 15 33  1  0  0  0  0
 16 34  1  0  0  0  0
 18 35  1  0  0  0  0
M  END
> <BIOSOLVEIT.HYDE_ESTIMATED_AFFINITY_LOWER_BOUNDARY [nM]>
189.260159

> <BIOSOLVEIT.HYDE_ESTIMATED_AFFINITY_UPPER_BOUNDARY [nM]>
18804.115768

> <BIOSOLVEIT.HYDE_LIGAND_EFFICIENCY range: ++, +, 0, -, -->
0

> <BIOSOLVEIT.HYDE_LIGAND_LIPOPHILIC_EFFICIENCY range: ++, +, 0, -, -->
0

> <BIOSOLVEIT.INTER_CLASH range: red, yellow, green>
green

> <BIOSOLVEIT.INTRA_CLASH range: red, yellow, green>
yellow

> <BIOSOLVEIT.LOGP>
0.9114

> <BIOSOLVEIT.MOLECULAR WEIGHT>
339.188

> <BIOSOLVEIT.MOLECULE_CHECKSUM>
LTMyLjY3NDY7MS42MzM3Mw==

> <BIOSOLVEIT.TORSION_QUALITY range: red, yellow, green, not rotatable>
green

> <BIOSOLVEIT.TPSA>
78.43

$$$$
