LIG_A_1101_CCC[C@H]([R*])C1CCC1_2
anSeeSAR  04022010343D 1   1.00000     0.00000     0
SeeSAR 9.2 andre
 52 53  0  0  0  0            999 V2000
    7.1731    5.7045   21.6671 C   0  0  0  0  0  0  0  0  0  0  0  0
    7.2530    0.1696   20.3513 C   0  0  0  0  0  0  0  0  0  0  0  0
    9.2624    1.5395   22.4185 C   0  0  0  0  0  0  0  0  0  0  0  0
    6.9688    4.3849   22.3402 C   0  0  0  0  0  0  0  0  0  0  0  0
    7.9481    2.1969   22.8181 C   0  0  2  0  0  0  0  0  0  0  0  0
    6.7549    1.2609   22.5640 C   0  0  0  0  0  0  0  0  0  0  0  0
    6.4788    1.0445   21.0964 C   0  0  0  0  0  0  0  0  0  0  0  0
    5.4706    1.7387   20.4437 C   0  0  0  0  0  0  0  0  0  0  0  0
    5.2344    1.5634   19.0907 C   0  0  0  0  0  0  0  0  0  0  0  0
    6.0214    0.6818   18.3707 C   0  0  0  0  0  0  0  0  0  0  0  0
    7.0338   -0.0124   18.9990 C   0  0  0  0  0  0  0  0  0  0  0  0
    7.8557    3.4353   22.0579 N   0  0  0  0  0  0  0  0  0  0  0  0
    9.8283    0.7539   23.3277 N   0  0  0  0  0  0  0  0  0  0  0  0
    6.0200    4.1663   23.0852 O   0  0  0  0  0  0  0  0  0  0  0  0
    5.8379    0.5031   17.0417 O   0  0  0  0  0  0  0  0  0  0  0  0
    9.7347    1.7140   21.2963 O   0  0  0  0  0  0  0  0  0  0  0  0
    6.4532    6.3382   21.9504 H   0  0  0  0  0  0  0  0  0  0  0  0
    8.0648    6.0760   21.9255 H   0  0  0  0  0  0  0  0  0  0  0  0
    7.1378    5.5818   20.6753 H   0  0  0  0  0  0  0  0  0  0  0  0
    7.9857   -0.3408   20.8015 H   0  0  0  0  0  0  0  0  0  0  0  0
    7.9819    2.4188   23.7926 H   0  0  0  0  0  0  0  0  0  0  0  0
    5.9409    1.6601   22.9861 H   0  0  0  0  0  0  0  0  0  0  0  0
    6.9489    0.3753   22.9860 H   0  0  0  0  0  0  0  0  0  0  0  0
    4.9027    2.3788   20.9611 H   0  0  0  0  0  0  0  0  0  0  0  0
    4.5009    2.0699   18.6374 H   0  0  0  0  0  0  0  0  0  0  0  0
    7.6071   -0.6450   18.4782 H   0  0  0  0  0  0  0  0  0  0  0  0
    8.4842    3.5773   21.2931 H   0  0  0  0  0  0  0  0  0  0  0  0
    9.5085    0.7863   24.2746 H   0  0  0  0  0  0  0  0  0  0  0  0
    6.6251    0.4929   16.4251 H   0  0  0  0  0  0  0  0  0  0  0  0
   14.1603   -1.0927   24.7558 C   0  0  0  0  0  0  0  0  0  0  0  0
   13.1543   -1.0160   23.6189 C   0  0  0  0  0  0  0  0  0  0  0  0
   12.0132   -0.0926   24.0137 C   0  0  0  0  0  0  0  0  0  0  0  0
   10.9179   -0.1626   22.9620 C   0  0  1  0  0  0  0  0  0  0  0  0
   10.3797   -1.5857   22.8833 C   0  0  0  0  0  0  0  0  0  0  0  0
    9.4436   -1.7898   21.7173 C   0  0  0  0  0  0  0  0  0  0  0  0
    8.6126   -2.6692   22.6185 C   0  0  0  0  0  0  0  0  0  0  0  0
    9.1373   -1.7948   23.7305 C   0  0  0  0  0  0  0  0  0  0  0  0
   11.2918    0.1021   22.0731 H   0  0  0  0  0  0  0  0  0  0  0  0
   14.9110   -1.7001   24.4961 H   0  0  0  0  0  0  0  0  0  0  0  0
   14.5206   -0.1791   24.9442 H   0  0  0  0  0  0  0  0  0  0  0  0
   13.7110   -1.4493   25.5749 H   0  0  0  0  0  0  0  0  0  0  0  0
   12.7939   -1.9295   23.4305 H   0  0  0  0  0  0  0  0  0  0  0  0
   13.6036   -0.6594   22.7998 H   0  0  0  0  0  0  0  0  0  0  0  0
   12.3518    0.8460   24.0804 H   0  0  0  0  0  0  0  0  0  0  0  0
   11.6445   -0.3777   24.8984 H   0  0  0  0  0  0  0  0  0  0  0  0
   11.0748   -2.2972   22.9854 H   0  0  0  0  0  0  0  0  0  0  0  0
    9.8498   -2.2614   20.9346 H   0  0  0  0  0  0  0  0  0  0  0  0
    8.9817   -0.9602   21.4036 H   0  0  0  0  0  0  0  0  0  0  0  0
    8.8969   -3.6270   22.6594 H   0  0  0  0  0  0  0  0  0  0  0  0
    7.6251   -2.6207   22.4684 H   0  0  0  0  0  0  0  0  0  0  0  0
    8.6023   -0.9670   23.8988 H   0  0  0  0  0  0  0  0  0  0  0  0
    9.2970   -2.2702   24.5957 H   0  0  0  0  0  0  0  0  0  0  0  0
  1  4  1  0  0  0  0
  2  7  2  0  0  0  0
  2 11  1  0  0  0  0
  3  5  1  0  0  0  0
  3 13  1  0  0  0  0
  3 16  2  0  0  0  0
 15 29  1  0  0  0  0
  4 12  1  0  0  0  0
  4 14  2  0  0  0  0
  5  6  1  0  0  0  0
  5 12  1  0  0  0  0
  6  7  1  0  0  0  0
  7  8  1  0  0  0  0
  8  9  2  0  0  0  0
  9 10  1  0  0  0  0
 10 11  2  0  0  0  0
 10 15  1  0  0  0  0
  1 17  1  0  0  0  0
  1 18  1  0  0  0  0
  1 19  1  0  0  0  0
  2 20  1  0  0  0  0
  5 21  1  0  0  0  0
  6 22  1  0  0  0  0
  6 23  1  0  0  0  0
  8 24  1  0  0  0  0
  9 25  1  0  0  0  0
 11 26  1  0  0  0  0
 12 27  1  0  0  0  0
 13 28  1  0  0  0  0
 30 31  1  0  0  0  0
 31 32  1  0  0  0  0
 32 33  1  0  0  0  0
 37 52  1  0  0  0  0
 33 34  1  0  0  0  0
 34 35  1  0  0  0  0
 35 36  1  0  0  0  0
 36 37  1  0  0  0  0
 37 34  1  0  0  0  0
 33 38  1  0  0  0  0
 30 39  1  0  0  0  0
 30 40  1  0  0  0  0
 30 41  1  0  0  0  0
 31 42  1  0  0  0  0
 31 43  1  0  0  0  0
 32 44  1  0  0  0  0
 32 45  1  0  0  0  0
 34 46  1  0  0  0  0
 35 47  1  0  0  0  0
 35 48  1  0  0  0  0
 36 49  1  0  0  0  0
 36 50  1  0  0  0  0
 37 51  1  0  0  0  0
 13 33  1  0  0  0  0
M  END
> <BIOSOLVEIT.HYDE_ESTIMATED_AFFINITY_LOWER_BOUNDARY [nM]>
16.067254

> <BIOSOLVEIT.HYDE_ESTIMATED_AFFINITY_UPPER_BOUNDARY [nM]>
1596.376710

> <BIOSOLVEIT.HYDE_LIGAND_EFFICIENCY range: ++, +, 0, -, -->
0

> <BIOSOLVEIT.HYDE_LIGAND_LIPOPHILIC_EFFICIENCY range: ++, +, 0, -, -->
0

> <BIOSOLVEIT.INTER_CLASH range: red, yellow, green>
green

> <BIOSOLVEIT.INTRA_CLASH range: red, yellow, green>
green

> <BIOSOLVEIT.LOGP>
2.5244

> <BIOSOLVEIT.MOLECULAR WEIGHT>
332.441

> <BIOSOLVEIT.MOLECULE_CHECKSUM>
LTM4Ljc4ODY7MS42MTYxOQ==

> <BIOSOLVEIT.TORSION_QUALITY range: red, yellow, green, not rotatable>
green

> <BIOSOLVEIT.TPSA>
78.43

$$$$
LIG_A_1101_CC(C)SC[R*]_1
anSeeSAR  04022010343D 1   1.00000     0.00000     0
SeeSAR 9.2 andre
 41 41  0  0  0  0            999 V2000
    7.2196    5.6708   21.7730 C   0  0  0  0  0  0  0  0  0  0  0  0
    7.5496    0.0387   20.5844 C   0  0  0  0  0  0  0  0  0  0  0  0
    9.5624    1.6504   22.5129 C   0  0  0  0  0  0  0  0  0  0  0  0
    7.1228    4.3649   22.4951 C   0  0  0  0  0  0  0  0  0  0  0  0
    8.2235    2.2302   22.9491 C   0  0  2  0  0  0  0  0  0  0  0  0
    7.0860    1.2126   22.7621 C   0  0  0  0  0  0  0  0  0  0  0  0
    6.7797    0.9324   21.3114 C   0  0  0  0  0  0  0  0  0  0  0  0
    5.7466    1.5852   20.6549 C   0  0  0  0  0  0  0  0  0  0  0  0
    5.4821    1.3514   19.3160 C   0  0  0  0  0  0  0  0  0  0  0  0
    6.2655    0.4522   18.6141 C   0  0  0  0  0  0  0  0  0  0  0  0
    7.3023   -0.2015   19.2461 C   0  0  0  0  0  0  0  0  0  0  0  0
    8.0211    3.4412   22.1665 N   0  0  0  0  0  0  0  0  0  0  0  0
    6.2465    4.1330   23.3206 O   0  0  0  0  0  0  0  0  0  0  0  0
    6.0543    0.2167   17.2981 O   0  0  0  0  0  0  0  0  0  0  0  0
    9.9579    1.7878   21.3566 O   0  0  0  0  0  0  0  0  0  0  0  0
    6.5003    6.2851   22.0972 H   0  0  0  0  0  0  0  0  0  0  0  0
    8.1138    6.0828   21.9478 H   0  0  0  0  0  0  0  0  0  0  0  0
    7.1095    5.5176   20.7909 H   0  0  0  0  0  0  0  0  0  0  0  0
    8.3000   -0.4426   21.0376 H   0  0  0  0  0  0  0  0  0  0  0  0
    8.2791    2.4772   23.9166 H   0  0  0  0  0  0  0  0  0  0  0  0
    6.2613    1.5724   23.1984 H   0  0  0  0  0  0  0  0  0  0  0  0
    7.3496    0.3550   23.2037 H   0  0  0  0  0  0  0  0  0  0  0  0
    5.1812    2.2380   21.1590 H   0  0  0  0  0  0  0  0  0  0  0  0
    4.7310    1.8286   18.8598 H   0  0  0  0  0  0  0  0  0  0  0  0
    7.8729   -0.8468   18.7381 H   0  0  0  0  0  0  0  0  0  0  0  0
    8.5799    3.5840   21.3496 H   0  0  0  0  0  0  0  0  0  0  0  0
    5.1216    0.1871   16.9389 H   0  0  0  0  0  0  0  0  0  0  0  0
   13.2125   -0.3483   24.4410 C   0  0  0  0  0  0  0  0  0  0  0  0
   12.8025   -0.1849   22.9865 C   0  0  0  0  0  0  0  0  0  0  0  0
   13.6366   -1.1120   22.1177 C   0  0  0  0  0  0  0  0  0  0  0  0
   11.0503   -0.6006   22.8034 S   0  0  0  0  0  0  0  0  0  0  0  0
   10.3282    0.8785   23.5563 C   0  0  0  0  0  0  0  0  0  0  0  0
   12.6637    0.2617   25.0126 H   0  0  0  0  0  0  0  0  0  0  0  0
   13.0631   -1.2954   24.7251 H   0  0  0  0  0  0  0  0  0  0  0  0
   14.1805   -0.1187   24.5423 H   0  0  0  0  0  0  0  0  0  0  0  0
   12.9518    0.7622   22.7025 H   0  0  0  0  0  0  0  0  0  0  0  0
   13.3668   -1.0044   21.1608 H   0  0  0  0  0  0  0  0  0  0  0  0
   14.6046   -0.8823   22.2189 H   0  0  0  0  0  0  0  0  0  0  0  0
   13.4873   -2.0591   22.4017 H   0  0  0  0  0  0  0  0  0  0  0  0
    9.7083    0.6086   24.2932 H   0  0  0  0  0  0  0  0  0  0  0  0
   11.0573    1.4532   23.9279 H   0  0  0  0  0  0  0  0  0  0  0  0
  1  4  1  0  0  0  0
  2  7  2  0  0  0  0
  2 11  1  0  0  0  0
  3  5  1  0  0  0  0
 14 27  1  0  0  0  0
  3 15  2  0  0  0  0
  4 12  1  0  0  0  0
  4 13  2  0  0  0  0
  5  6  1  0  0  0  0
  5 12  1  0  0  0  0
  6  7  1  0  0  0  0
  7  8  1  0  0  0  0
  8  9  2  0  0  0  0
  9 10  1  0  0  0  0
 10 11  2  0  0  0  0
 10 14  1  0  0  0  0
  1 16  1  0  0  0  0
  1 17  1  0  0  0  0
  1 18  1  0  0  0  0
  2 19  1  0  0  0  0
  5 20  1  0  0  0  0
  6 21  1  0  0  0  0
  6 22  1  0  0  0  0
  8 23  1  0  0  0  0
  9 24  1  0  0  0  0
 11 25  1  0  0  0  0
 12 26  1  0  0  0  0
 28 29  1  0  0  0  0
 29 30  1  0  0  0  0
 29 31  1  0  0  0  0
 31 32  1  0  0  0  0
 32 41  1  0  0  0  0
 28 33  1  0  0  0  0
 28 34  1  0  0  0  0
 28 35  1  0  0  0  0
 29 36  1  0  0  0  0
 30 37  1  0  0  0  0
 30 38  1  0  0  0  0
 30 39  1  0  0  0  0
 32 40  1  0  0  0  0
  3 32  1  0  0  0  0
M  END
> <BIOSOLVEIT.HYDE_ESTIMATED_AFFINITY_LOWER_BOUNDARY [nM]>
38.968780

> <BIOSOLVEIT.HYDE_ESTIMATED_AFFINITY_UPPER_BOUNDARY [nM]>
3871.778648

> <BIOSOLVEIT.HYDE_LIGAND_EFFICIENCY range: ++, +, 0, -, -->
+

> <BIOSOLVEIT.HYDE_LIGAND_LIPOPHILIC_EFFICIENCY range: ++, +, 0, -, -->
0

> <BIOSOLVEIT.INTER_CLASH range: red, yellow, green>
green

> <BIOSOLVEIT.INTRA_CLASH range: red, yellow, green>
green

> <BIOSOLVEIT.LOGP>
2.1501

> <BIOSOLVEIT.MOLECULAR WEIGHT>
295.4

> <BIOSOLVEIT.MOLECULE_CHECKSUM>
LTM2LjU5MjM7MS44Mjk2MQ==

> <BIOSOLVEIT.TORSION_QUALITY range: red, yellow, green, not rotatable>
yellow

> <BIOSOLVEIT.TPSA>
66.4

$$$$
LIG_A_1101_CCCC[R*]_2
anSeeSAR  04022010343D 1   1.00000     0.00000     0
SeeSAR 9.2 andre
 42 42  0  0  0  0            999 V2000
    7.2237    5.6200   21.8685 C   0  0  0  0  0  0  0  0  0  0  0  0
    7.5622    0.0907   20.4690 C   0  0  0  0  0  0  0  0  0  0  0  0
    9.6095    1.6027   22.4776 C   0  0  0  0  0  0  0  0  0  0  0  0
    7.1421    4.2914   22.5497 C   0  0  0  0  0  0  0  0  0  0  0  0
    8.2664    2.1556   22.9355 C   0  0  2  0  0  0  0  0  0  0  0  0
    7.1383    1.1331   22.7205 C   0  0  0  0  0  0  0  0  0  0  0  0
    6.7983    0.9295   21.2645 C   0  0  0  0  0  0  0  0  0  0  0  0
    5.7386    1.6007   20.6723 C   0  0  0  0  0  0  0  0  0  0  0  0
    5.4425    1.4379   19.3294 C   0  0  0  0  0  0  0  0  0  0  0  0
    6.2207    0.5925   18.5583 C   0  0  0  0  0  0  0  0  0  0  0  0
    7.2835   -0.0784   19.1260 C   0  0  0  0  0  0  0  0  0  0  0  0
    8.0498    3.3881   22.1913 N   0  0  0  0  0  0  0  0  0  0  0  0
   10.2669    0.8515   23.3537 N   0  0  0  0  0  0  0  0  0  0  0  0
    6.2698    4.0245   23.3688 O   0  0  0  0  0  0  0  0  0  0  0  0
    5.9786    0.4275   17.2370 O   0  0  0  0  0  0  0  0  0  0  0  0
   10.0239    1.8243   21.3409 O   0  0  0  0  0  0  0  0  0  0  0  0
    6.4984    6.2162   22.2128 H   0  0  0  0  0  0  0  0  0  0  0  0
    8.1137    6.0361   22.0549 H   0  0  0  0  0  0  0  0  0  0  0  0
    7.1135    5.4963   20.8823 H   0  0  0  0  0  0  0  0  0  0  0  0
    8.3314   -0.4027   20.8752 H   0  0  0  0  0  0  0  0  0  0  0  0
    8.3228    2.3731   23.9099 H   0  0  0  0  0  0  0  0  0  0  0  0
    6.3204    1.4557   23.1968 H   0  0  0  0  0  0  0  0  0  0  0  0
    7.4248    0.2562   23.1066 H   0  0  0  0  0  0  0  0  0  0  0  0
    5.1768    2.2149   21.2266 H   0  0  0  0  0  0  0  0  0  0  0  0
    4.6725    1.9274   18.9202 H   0  0  0  0  0  0  0  0  0  0  0  0
    7.8502   -0.6847   18.5681 H   0  0  0  0  0  0  0  0  0  0  0  0
    8.6055    3.5623   21.3784 H   0  0  0  0  0  0  0  0  0  0  0  0
    9.9824    0.8495   24.3124 H   0  0  0  0  0  0  0  0  0  0  0  0
    5.3035    1.0039   16.7766 H   0  0  0  0  0  0  0  0  0  0  0  0
   13.6687   -1.6708   23.3551 C   0  0  0  0  0  0  0  0  0  0  0  0
   13.4452   -0.4715   24.2617 C   0  0  0  0  0  0  0  0  0  0  0  0
   12.6917    0.6064   23.4993 C   0  0  0  0  0  0  0  0  0  0  0  0
   11.4066    0.0232   22.9346 C   0  0  0  0  0  0  0  0  0  0  0  0
   14.1643   -2.3799   23.8566 H   0  0  0  0  0  0  0  0  0  0  0  0
   12.7854   -2.0307   23.0546 H   0  0  0  0  0  0  0  0  0  0  0  0
   14.2033   -1.3909   22.5577 H   0  0  0  0  0  0  0  0  0  0  0  0
   14.3284   -0.1116   24.5622 H   0  0  0  0  0  0  0  0  0  0  0  0
   12.9105   -0.7514   25.0590 H   0  0  0  0  0  0  0  0  0  0  0  0
   13.2614    0.9450   22.7505 H   0  0  0  0  0  0  0  0  0  0  0  0
   12.4718    1.3604   24.1182 H   0  0  0  0  0  0  0  0  0  0  0  0
   11.4582    0.0079   21.9360 H   0  0  0  0  0  0  0  0  0  0  0  0
   11.2850   -0.9087   23.2764 H   0  0  0  0  0  0  0  0  0  0  0  0
  1  4  1  0  0  0  0
  2  7  2  0  0  0  0
  2 11  1  0  0  0  0
  3  5  1  0  0  0  0
  3 13  1  0  0  0  0
  3 16  2  0  0  0  0
 15 29  1  0  0  0  0
  4 12  1  0  0  0  0
  4 14  2  0  0  0  0
  5  6  1  0  0  0  0
  5 12  1  0  0  0  0
  6  7  1  0  0  0  0
  7  8  1  0  0  0  0
  8  9  2  0  0  0  0
  9 10  1  0  0  0  0
 10 11  2  0  0  0  0
 10 15  1  0  0  0  0
  1 17  1  0  0  0  0
  1 18  1  0  0  0  0
  1 19  1  0  0  0  0
  2 20  1  0  0  0  0
  5 21  1  0  0  0  0
  6 22  1  0  0  0  0
  6 23  1  0  0  0  0
  8 24  1  0  0  0  0
  9 25  1  0  0  0  0
 11 26  1  0  0  0  0
 12 27  1  0  0  0  0
 13 28  1  0  0  0  0
 30 31  1  0  0  0  0
 31 32  1  0  0  0  0
 32 33  1  0  0  0  0
 33 42  1  0  0  0  0
 30 34  1  0  0  0  0
 30 35  1  0  0  0  0
 30 36  1  0  0  0  0
 31 37  1  0  0  0  0
 31 38  1  0  0  0  0
 32 39  1  0  0  0  0
 32 40  1  0  0  0  0
 33 41  1  0  0  0  0
 13 33  1  0  0  0  0
M  END
> <BIOSOLVEIT.HYDE_ESTIMATED_AFFINITY_LOWER_BOUNDARY [nM]>
52.938810

> <BIOSOLVEIT.HYDE_ESTIMATED_AFFINITY_UPPER_BOUNDARY [nM]>
5259.783805

> <BIOSOLVEIT.HYDE_LIGAND_EFFICIENCY range: ++, +, 0, -, -->
+

> <BIOSOLVEIT.HYDE_LIGAND_LIPOPHILIC_EFFICIENCY range: ++, +, 0, -, -->
0

> <BIOSOLVEIT.INTER_CLASH range: red, yellow, green>
green

> <BIOSOLVEIT.INTRA_CLASH range: red, yellow, green>
green

> <BIOSOLVEIT.LOGP>
1.3557

> <BIOSOLVEIT.MOLECULAR WEIGHT>
278.35

> <BIOSOLVEIT.MOLECULE_CHECKSUM>
LTM1LjgzMjg7MS43OTE2NA==

> <BIOSOLVEIT.TORSION_QUALITY range: red, yellow, green, not rotatable>
yellow

> <BIOSOLVEIT.TPSA>
78.43

$$$$
LIG_A_1101_C[NH+](C)[C@H]([R*])C1CCC1_2
anSeeSAR  04022010343D 1   1.00000     0.00000     0
SeeSAR 9.2 andre
 52 53  0  0  0  0            999 V2000
    7.1701    5.6969   21.7321 C   0  0  0  0  0  0  0  0  0  0  0  0
    7.2588    0.0770   20.4084 C   0  0  0  0  0  0  0  0  0  0  0  0
    9.3146    1.5394   22.3665 C   0  0  0  0  0  0  0  0  0  0  0  0
    6.9977    4.3676   22.3949 C   0  0  0  0  0  0  0  0  0  0  0  0
    8.0109    2.1838   22.8183 C   0  0  2  0  0  0  0  0  0  0  0  0
    6.8153    1.2431   22.5945 C   0  0  0  0  0  0  0  0  0  0  0  0
    6.5231    1.0000   21.1342 C   0  0  0  0  0  0  0  0  0  0  0  0
    5.5390    1.7159   20.4683 C   0  0  0  0  0  0  0  0  0  0  0  0
    5.2888    1.5154   19.1213 C   0  0  0  0  0  0  0  0  0  0  0  0
    6.0372    0.5858   18.4207 C   0  0  0  0  0  0  0  0  0  0  0  0
    7.0254   -0.1309   19.0623 C   0  0  0  0  0  0  0  0  0  0  0  0
    7.8851    3.4300   22.0760 N   0  0  0  0  0  0  0  0  0  0  0  0
    9.9424    0.7882   23.2641 N   0  0  0  0  0  0  0  0  0  0  0  0
    6.0728    4.1310   23.1641 O   0  0  0  0  0  0  0  0  0  0  0  0
    5.8396    0.3804   17.0977 O   0  0  0  0  0  0  0  0  0  0  0  0
    9.7239    1.6924   21.2167 O   0  0  0  0  0  0  0  0  0  0  0  0
    6.4528    6.3202   22.0435 H   0  0  0  0  0  0  0  0  0  0  0  0
    8.0654    6.0740   21.9694 H   0  0  0  0  0  0  0  0  0  0  0  0
    7.1075    5.5855   20.7403 H   0  0  0  0  0  0  0  0  0  0  0  0
    7.9736   -0.4498   20.8684 H   0  0  0  0  0  0  0  0  0  0  0  0
    8.0767    2.3949   23.7936 H   0  0  0  0  0  0  0  0  0  0  0  0
    6.0059    1.6497   23.0183 H   0  0  0  0  0  0  0  0  0  0  0  0
    7.0143    0.3653   23.0303 H   0  0  0  0  0  0  0  0  0  0  0  0
    4.9991    2.3907   20.9715 H   0  0  0  0  0  0  0  0  0  0  0  0
    4.5730    2.0382   18.6584 H   0  0  0  0  0  0  0  0  0  0  0  0
    7.5709   -0.7984   18.5554 H   0  0  0  0  0  0  0  0  0  0  0  0
    8.4900    3.5871   21.2953 H   0  0  0  0  0  0  0  0  0  0  0  0
    9.6722    0.8400   24.2256 H   0  0  0  0  0  0  0  0  0  0  0  0
    6.6119    0.4250   16.4640 H   0  0  0  0  0  0  0  0  0  0  0  0
   12.8717    1.3164   23.4188 C   0  0  0  0  0  0  0  0  0  0  0  0
   12.1771    0.0675   23.7632 N   0  3  0  0  0  0  0  0  0  0  0  0
   13.1028   -1.0648   23.6155 C   0  0  0  0  0  0  0  0  0  0  0  0
   11.0285   -0.1182   22.8647 C   0  0  1  0  0  0  0  0  0  0  0  0
   10.5442   -1.5601   22.9509 C   0  0  0  0  0  0  0  0  0  0  0  0
    9.5408   -1.9019   21.8768 C   0  0  0  0  0  0  0  0  0  0  0  0
    8.8086   -2.7231   22.9091 C   0  0  0  0  0  0  0  0  0  0  0  0
    9.3713   -1.7334   23.8991 C   0  0  0  0  0  0  0  0  0  0  0  0
   11.8561    0.1145   24.7091 H   0  0  0  0  0  0  0  0  0  0  0  0
   11.3040    0.0853   21.9252 H   0  0  0  0  0  0  0  0  0  0  0  0
   12.2419    2.0867   23.5193 H   0  0  0  0  0  0  0  0  0  0  0  0
   13.6530    1.4427   24.0300 H   0  0  0  0  0  0  0  0  0  0  0  0
   13.1926    1.2694   22.4729 H   0  0  0  0  0  0  0  0  0  0  0  0
   12.6303   -1.9144   23.8497 H   0  0  0  0  0  0  0  0  0  0  0  0
   13.4237   -1.1118   22.6695 H   0  0  0  0  0  0  0  0  0  0  0  0
   13.8841   -0.9385   24.2267 H   0  0  0  0  0  0  0  0  0  0  0  0
   11.2729   -2.2352   23.0664 H   0  0  0  0  0  0  0  0  0  0  0  0
    9.9121   -2.4288   21.1123 H   0  0  0  0  0  0  0  0  0  0  0  0
    9.0257   -1.1207   21.5241 H   0  0  0  0  0  0  0  0  0  0  0  0
    9.1336   -3.6629   23.0146 H   0  0  0  0  0  0  0  0  0  0  0  0
    7.8121   -2.7224   22.8255 H   0  0  0  0  0  0  0  0  0  0  0  0
    8.8157   -0.9124   24.0306 H   0  0  0  0  0  0  0  0  0  0  0  0
    9.6079   -2.1219   24.7896 H   0  0  0  0  0  0  0  0  0  0  0  0
  1  4  1  0  0  0  0
  2  7  2  0  0  0  0
  2 11  1  0  0  0  0
  3  5  1  0  0  0  0
  3 13  1  0  0  0  0
  3 16  2  0  0  0  0
 15 29  1  0  0  0  0
  4 12  1  0  0  0  0
  4 14  2  0  0  0  0
  5  6  1  0  0  0  0
  5 12  1  0  0  0  0
  6  7  1  0  0  0  0
  7  8  1  0  0  0  0
  8  9  2  0  0  0  0
  9 10  1  0  0  0  0
 10 11  2  0  0  0  0
 10 15  1  0  0  0  0
  1 17  1  0  0  0  0
  1 18  1  0  0  0  0
  1 19  1  0  0  0  0
  2 20  1  0  0  0  0
  5 21  1  0  0  0  0
  6 22  1  0  0  0  0
  6 23  1  0  0  0  0
  8 24  1  0  0  0  0
  9 25  1  0  0  0  0
 11 26  1  0  0  0  0
 12 27  1  0  0  0  0
 13 28  1  0  0  0  0
 30 31  1  0  0  0  0
 31 32  1  0  0  0  0
 31 33  1  0  0  0  0
 37 52  1  0  0  0  0
 33 34  1  0  0  0  0
 34 35  1  0  0  0  0
 35 36  1  0  0  0  0
 36 37  1  0  0  0  0
 37 34  1  0  0  0  0
 31 38  1  0  0  0  0
 33 39  1  0  0  0  0
 30 40  1  0  0  0  0
 30 41  1  0  0  0  0
 30 42  1  0  0  0  0
 32 43  1  0  0  0  0
 32 44  1  0  0  0  0
 32 45  1  0  0  0  0
 34 46  1  0  0  0  0
 35 47  1  0  0  0  0
 35 48  1  0  0  0  0
 36 49  1  0  0  0  0
 36 50  1  0  0  0  0
 37 51  1  0  0  0  0
 13 33  1  0  0  0  0
M  CHG  1  31   1
M  END
> <BIOSOLVEIT.HYDE_ESTIMATED_AFFINITY_LOWER_BOUNDARY [nM]>
73.227225

> <BIOSOLVEIT.HYDE_ESTIMATED_AFFINITY_UPPER_BOUNDARY [nM]>
7275.557743

> <BIOSOLVEIT.HYDE_LIGAND_EFFICIENCY range: ++, +, 0, -, -->
0

> <BIOSOLVEIT.HYDE_LIGAND_LIPOPHILIC_EFFICIENCY range: ++, +, 0, -, -->
+

> <BIOSOLVEIT.INTER_CLASH range: red, yellow, green>
green

> <BIOSOLVEIT.INTRA_CLASH range: red, yellow, green>
green

> <BIOSOLVEIT.LOGP>
-0.1737

> <BIOSOLVEIT.MOLECULAR WEIGHT>
334.437

> <BIOSOLVEIT.MOLECULE_CHECKSUM>
LTM1LjAyODU7MS40NTk1Mg==

> <BIOSOLVEIT.TORSION_QUALITY range: red, yellow, green, not rotatable>
green

> <BIOSOLVEIT.TPSA>
82.87

$$$$
LIG_A_1101_CC(C)CC[C@]1([R*])CCCOC1_2
anSeeSAR  04022010343D 1   1.00000     0.00000     0
SeeSAR 9.2 andre
 59 60  0  0  0  0            999 V2000
    7.2671    5.9951   21.5296 C   0  0  0  0  0  0  0  0  0  0  0  0
    6.2783    0.0020   20.6291 C   0  0  0  0  0  0  0  0  0  0  0  0
    8.4496    1.4785   22.3249 C   0  0  0  0  0  0  0  0  0  0  0  0
    6.7641    4.7273   22.1426 C   0  0  0  0  0  0  0  0  0  0  0  0
    7.3030    2.4087   22.6980 C   0  0  2  0  0  0  0  0  0  0  0  0
    5.9398    1.7663   22.3921 C   0  0  0  0  0  0  0  0  0  0  0  0
    5.8298    1.2673   20.9723 C   0  0  0  0  0  0  0  0  0  0  0  0
    5.3130    2.0696   19.9655 C   0  0  0  0  0  0  0  0  0  0  0  0
    5.2380    1.6246   18.6564 C   0  0  0  0  0  0  0  0  0  0  0  0
    5.6914    0.3556   18.3417 C   0  0  0  0  0  0  0  0  0  0  0  0
    6.2158   -0.4550   19.3264 C   0  0  0  0  0  0  0  0  0  0  0  0
    7.5142    3.6449   21.9583 N   0  0  0  0  0  0  0  0  0  0  0  0
    8.8150    0.5949   23.2468 N   0  0  0  0  0  0  0  0  0  0  0  0
    5.7026    4.6677   22.7530 O   0  0  0  0  0  0  0  0  0  0  0  0
    5.6585   -0.1049   17.0694 O   0  0  0  0  0  0  0  0  0  0  0  0
    8.9682    1.5383   21.2112 O   0  0  0  0  0  0  0  0  0  0  0  0
    6.6289    6.7384   21.7300 H   0  0  0  0  0  0  0  0  0  0  0  0
    8.1655    6.2155   21.9095 H   0  0  0  0  0  0  0  0  0  0  0  0
    7.3434    5.8791   20.5392 H   0  0  0  0  0  0  0  0  0  0  0  0
    6.6552   -0.5930   21.3390 H   0  0  0  0  0  0  0  0  0  0  0  0
    7.3537    2.6063   23.6770 H   0  0  0  0  0  0  0  0  0  0  0  0
    5.2243    2.4475   22.5470 H   0  0  0  0  0  0  0  0  0  0  0  0
    5.8048    0.9940   23.0128 H   0  0  0  0  0  0  0  0  0  0  0  0
    4.9879    2.9883   20.1898 H   0  0  0  0  0  0  0  0  0  0  0  0
    4.8592    2.2156   17.9442 H   0  0  0  0  0  0  0  0  0  0  0  0
    6.5494   -1.3698   19.0987 H   0  0  0  0  0  0  0  0  0  0  0  0
    8.2527    3.6814   21.2850 H   0  0  0  0  0  0  0  0  0  0  0  0
    8.4933    0.7026   24.1875 H   0  0  0  0  0  0  0  0  0  0  0  0
    6.4243    0.0761   16.4522 H   0  0  0  0  0  0  0  0  0  0  0  0
   13.2799    1.0901   22.9655 C   0  0  0  0  0  0  0  0  0  0  0  0
   13.4091   -0.4241   22.9405 C   0  0  0  0  0  0  0  0  0  0  0  0
   13.7772   -0.9242   24.3279 C   0  0  0  0  0  0  0  0  0  0  0  0
   12.0855   -1.0386   22.5152 C   0  0  0  0  0  0  0  0  0  0  0  0
   11.0185    0.0428   22.4627 C   0  0  0  0  0  0  0  0  0  0  0  0
    9.6854   -0.5390   22.9042 C   0  0  1  0  0  0  0  0  0  0  0  0
    9.8979   -1.4477   24.1062 C   0  0  0  0  0  0  0  0  0  0  0  0
    8.5850   -2.0963   24.5172 C   0  0  0  0  0  0  0  0  0  0  0  0
    7.9435   -2.7988   23.3291 C   0  0  0  0  0  0  0  0  0  0  0  0
    7.8049   -1.9522   22.1927 O   0  0  0  0  0  0  0  0  0  0  0  0
    9.0353   -1.3549   21.7940 C   0  0  0  0  0  0  0  0  0  0  0  0
   13.0377    1.4191   22.0527 H   0  0  0  0  0  0  0  0  0  0  0  0
   12.5663    1.3531   23.6148 H   0  0  0  0  0  0  0  0  0  0  0  0
   14.1507    1.4944   23.2453 H   0  0  0  0  0  0  0  0  0  0  0  0
   14.1227   -0.6871   22.2912 H   0  0  0  0  0  0  0  0  0  0  0  0
   13.8622   -1.9204   24.3114 H   0  0  0  0  0  0  0  0  0  0  0  0
   14.6479   -0.5199   24.6078 H   0  0  0  0  0  0  0  0  0  0  0  0
   13.0636   -0.6612   24.9772 H   0  0  0  0  0  0  0  0  0  0  0  0
   11.8166   -1.7405   23.1748 H   0  0  0  0  0  0  0  0  0  0  0  0
   12.1855   -1.4523   21.6103 H   0  0  0  0  0  0  0  0  0  0  0  0
   10.9385    0.3871   21.5273 H   0  0  0  0  0  0  0  0  0  0  0  0
   11.2735    0.7926   23.0732 H   0  0  0  0  0  0  0  0  0  0  0  0
   10.2519   -0.9073   24.8695 H   0  0  0  0  0  0  0  0  0  0  0  0
   10.5576   -2.1605   23.8682 H   0  0  0  0  0  0  0  0  0  0  0  0
    7.9626   -1.3921   24.8587 H   0  0  0  0  0  0  0  0  0  0  0  0
    8.7602   -2.7651   25.2397 H   0  0  0  0  0  0  0  0  0  0  0  0
    7.0360   -3.1197   23.6003 H   0  0  0  0  0  0  0  0  0  0  0  0
    8.5121   -3.5815   23.0763 H   0  0  0  0  0  0  0  0  0  0  0  0
    9.6672   -2.0793   21.5185 H   0  0  0  0  0  0  0  0  0  0  0  0
    8.8598   -0.7519   21.0158 H   0  0  0  0  0  0  0  0  0  0  0  0
  1  4  1  0  0  0  0
  2  7  2  0  0  0  0
  2 11  1  0  0  0  0
  3  5  1  0  0  0  0
  3 13  1  0  0  0  0
  3 16  2  0  0  0  0
 15 29  1  0  0  0  0
  4 12  1  0  0  0  0
  4 14  2  0  0  0  0
  5  6  1  0  0  0  0
  5 12  1  0  0  0  0
  6  7  1  0  0  0  0
  7  8  1  0  0  0  0
  8  9  2  0  0  0  0
  9 10  1  0  0  0  0
 10 11  2  0  0  0  0
 10 15  1  0  0  0  0
  1 17  1  0  0  0  0
  1 18  1  0  0  0  0
  1 19  1  0  0  0  0
  2 20  1  0  0  0  0
  5 21  1  0  0  0  0
  6 22  1  0  0  0  0
  6 23  1  0  0  0  0
  8 24  1  0  0  0  0
  9 25  1  0  0  0  0
 11 26  1  0  0  0  0
 12 27  1  0  0  0  0
 13 28  1  0  0  0  0
 30 31  1  0  0  0  0
 31 32  1  0  0  0  0
 31 33  1  0  0  0  0
 33 34  1  0  0  0  0
 34 35  1  0  0  0  0
 40 59  1  0  0  0  0
 35 36  1  0  0  0  0
 36 37  1  0  0  0  0
 37 38  1  0  0  0  0
 38 39  1  0  0  0  0
 39 40  1  0  0  0  0
 40 35  1  0  0  0  0
 30 41  1  0  0  0  0
 30 42  1  0  0  0  0
 30 43  1  0  0  0  0
 31 44  1  0  0  0  0
 32 45  1  0  0  0  0
 32 46  1  0  0  0  0
 32 47  1  0  0  0  0
 33 48  1  0  0  0  0
 33 49  1  0  0  0  0
 34 50  1  0  0  0  0
 34 51  1  0  0  0  0
 36 52  1  0  0  0  0
 36 53  1  0  0  0  0
 37 54  1  0  0  0  0
 37 55  1  0  0  0  0
 38 56  1  0  0  0  0
 38 57  1  0  0  0  0
 40 58  1  0  0  0  0
 13 35  1  0  0  0  0
M  END
> <BIOSOLVEIT.HYDE_ESTIMATED_AFFINITY_LOWER_BOUNDARY [nM]>
93.123469

> <BIOSOLVEIT.HYDE_ESTIMATED_AFFINITY_UPPER_BOUNDARY [nM]>
9252.367271

> <BIOSOLVEIT.HYDE_LIGAND_EFFICIENCY range: ++, +, 0, -, -->
0

> <BIOSOLVEIT.HYDE_LIGAND_LIPOPHILIC_EFFICIENCY range: ++, +, 0, -, -->
-

> <BIOSOLVEIT.INTER_CLASH range: red, yellow, green>
green

> <BIOSOLVEIT.INTRA_CLASH range: red, yellow, green>
yellow

> <BIOSOLVEIT.LOGP>
2.541

> <BIOSOLVEIT.MOLECULAR WEIGHT>
376.494

> <BIOSOLVEIT.MOLECULE_CHECKSUM>
LTM0LjQzMjc7MS4yNzUyOA==

> <BIOSOLVEIT.TORSION_QUALITY range: red, yellow, green, not rotatable>
red

> <BIOSOLVEIT.TPSA>
87.66

$$$$
LIG_A_1101_2_02
anSeeSAR  04022010343D 1   1.00000     0.00000     0
SeeSAR 9.2 andre
 35 35  0  0  0  0            999 V2000
    7.5654    5.8293   21.9018 C   0  0  0  0  0  0  0  0  0  0  0  0
    6.3977   -0.1627   20.6240 C   0  0  0  0  0  0  0  0  0  0  0  0
    8.6892    1.2284   22.1336 C   0  0  0  0  0  0  0  0  0  0  0  0
    9.5856   -1.0143   22.0873 C   0  0  0  0  0  0  0  0  0  0  0  0
   10.9803   -0.9501   22.5265 C   0  0  0  0  0  0  0  0  0  0  0  0
   12.0935   -1.0483   22.9600 C   0  0  0  0  0  0  0  0  0  0  0  0
    7.0725    4.5084   22.4002 C   0  0  0  0  0  0  0  0  0  0  0  0
    7.6089    2.1422   22.6968 C   0  0  2  0  0  0  0  0  0  0  0  0
    6.2041    1.5741   22.4355 C   0  0  0  0  0  0  0  0  0  0  0  0
    6.0122    1.1103   21.0124 C   0  0  0  0  0  0  0  0  0  0  0  0
    5.4810    1.9524   20.0465 C   0  0  0  0  0  0  0  0  0  0  0  0
    5.3310    1.5389   18.7335 C   0  0  0  0  0  0  0  0  0  0  0  0
    5.7225    0.2614   18.3731 C   0  0  0  0  0  0  0  0  0  0  0  0
    6.2600   -0.5888   19.3165 C   0  0  0  0  0  0  0  0  0  0  0  0
    7.8055    3.4463   22.0797 N   0  0  0  0  0  0  0  0  0  0  0  0
    8.8157    0.0397   22.7124 N   0  0  0  0  0  0  0  0  0  0  0  0
    6.0326    4.3929   23.0392 O   0  0  0  0  0  0  0  0  0  0  0  0
    5.6157   -0.1699   17.0947 O   0  0  0  0  0  0  0  0  0  0  0  0
    9.3697    1.5812   21.1719 O   0  0  0  0  0  0  0  0  0  0  0  0
   13.8099   -1.3885   23.7768 Br  0  0  0  0  0  0  0  0  0  0  0  0
    6.9416    6.5519   22.1997 H   0  0  0  0  0  0  0  0  0  0  0  0
    8.4786    6.0047   22.2696 H   0  0  0  0  0  0  0  0  0  0  0  0
    7.6057    5.8146   20.9027 H   0  0  0  0  0  0  0  0  0  0  0  0
    6.7836   -0.7862   21.3039 H   0  0  0  0  0  0  0  0  0  0  0  0
    9.1996   -1.9009   22.3421 H   0  0  0  0  0  0  0  0  0  0  0  0
    9.5469   -0.9070   21.0939 H   0  0  0  0  0  0  0  0  0  0  0  0
    7.7428    2.2293   23.6839 H   0  0  0  0  0  0  0  0  0  0  0  0
    5.5304    2.2864   22.6323 H   0  0  0  0  0  0  0  0  0  0  0  0
    6.0557    0.7968   23.0469 H   0  0  0  0  0  0  0  0  0  0  0  0
    5.2005    2.8772   20.3037 H   0  0  0  0  0  0  0  0  0  0  0  0
    4.9429    2.1584   18.0512 H   0  0  0  0  0  0  0  0  0  0  0  0
    6.5489   -1.5099   19.0557 H   0  0  0  0  0  0  0  0  0  0  0  0
    8.5201    3.5471   21.3875 H   0  0  0  0  0  0  0  0  0  0  0  0
    8.3726   -0.1294   23.5927 H   0  0  0  0  0  0  0  0  0  0  0  0
    6.3637   -0.0129   16.4499 H   0  0  0  0  0  0  0  0  0  0  0  0
  1  7  1  0  0  0  0
  2 10  2  0  0  0  0
  2 14  1  0  0  0  0
  3  8  1  0  0  0  0
  3 16  1  0  0  0  0
  3 19  2  0  0  0  0
  4  5  1  0  0  0  0
  4 16  1  0  0  0  0
  5  6  3  0  0  0  0
  6 20  1  0  0  0  0
  7 15  1  0  0  0  0
  7 17  2  0  0  0  0
  8  9  1  0  0  0  0
  8 15  1  0  0  0  0
  9 10  1  0  0  0  0
 10 11  1  0  0  0  0
 11 12  2  0  0  0  0
 12 13  1  0  0  0  0
 13 14  2  0  0  0  0
 13 18  1  0  0  0  0
  1 21  1  0  0  0  0
  1 22  1  0  0  0  0
  1 23  1  0  0  0  0
  2 24  1  0  0  0  0
  4 25  1  0  0  0  0
  4 26  1  0  0  0  0
  8 27  1  0  0  0  0
  9 28  1  0  0  0  0
  9 29  1  0  0  0  0
 11 30  1  0  0  0  0
 12 31  1  0  0  0  0
 14 32  1  0  0  0  0
 15 33  1  0  0  0  0
 16 34  1  0  0  0  0
 18 35  1  0  0  0  0
M  END
> <BIOSOLVEIT.HYDE_ESTIMATED_AFFINITY_LOWER_BOUNDARY [nM]>
189.260159

> <BIOSOLVEIT.HYDE_ESTIMATED_AFFINITY_UPPER_BOUNDARY [nM]>
18804.115768

> <BIOSOLVEIT.HYDE_LIGAND_EFFICIENCY range: ++, +, 0, -, -->
0

> <BIOSOLVEIT.HYDE_LIGAND_LIPOPHILIC_EFFICIENCY range: ++, +, 0, -, -->
0

> <BIOSOLVEIT.INTER_CLASH range: red, yellow, green>
green

> <BIOSOLVEIT.INTRA_CLASH range: red, yellow, green>
yellow

> <BIOSOLVEIT.LOGP>
0.9114

> <BIOSOLVEIT.MOLECULAR WEIGHT>
339.188

> <BIOSOLVEIT.MOLECULE_CHECKSUM>
LTMyLjY3NDY7MS42MzM3Mw==

> <BIOSOLVEIT.TORSION_QUALITY range: red, yellow, green, not rotatable>
green

> <BIOSOLVEIT.TPSA>
78.43

$$$$
